@<TRIPOS>MOLECULE
*****
 26 25 0 0 0
SMALL
GASTEIGER
Energy = 0
# Matlab generated based on hardt_2005 DSHAKRHHGYKRKFHEKHHSHRGY
@<TRIPOS>ATOM
       1       F       1      -2      -2       F       1     NTR       0       #  N-term
       2       F       2       0      -3       F       2     ASP       0       #       D
       3       F       3       4       4       F       3     SER       0       #       S
       4       F       4       0       0       F       4     HIS       0       #       H
       5       F       5      -1       4       F       5     ALA       0       #       A
       6       F       6      -1      -3       F       6     LYS       0       #       K
       7       F       7       3       0       F       7     ARG       0       #       R
       8       F       8      -2       0       F       8     HIS       0       #       H
       9       F       9      -3      -2       F       9     HIS       0       #       H
      10       F      10       4       4       F      10     GLY       0       #       G
      11       F      11       1      -3       F      11     TYR       0       #       Y
      12       F      12      -2      -1       F      12     LYS       0       #       K
      13       F      13       3      -3       F      13     ARG       0       #       R
      14       F      14      -3      -2       F      14     LYS       0       #       K
      15       F      15       2       2       F      15     PHE       0       #       F
      16       F      16       2       0       F      16     HIS       0       #       H
      17       F      17       1      -1       F      17     GLU       0       #       E
      18       F      18       2      -2       F      18     LYS       0       #       K
      19       F      19       2      -2       F      19     HIS       0       #       H
      20       F      20      -1       2       F      20     HIS       0       #       H
      21       F      21       3      -3       F      21     SER       0       #       S
      22       F      22       4       3       F      22     HIS       0       #       H
      23       F      23       0       0       F      23     ARG       0       #       R
      24       F      24       0      -1       F      24     GLY       0       #       G
      25       F      25       1       1       F      25     TYR       0       #       Y
      26       F      26       3       3       F      26     CTR       0       #  C-term
@<TRIPOS>BOND
1 1 2 1
2 2 3 1
3 3 4 1
4 4 5 1
5 5 6 1
6 6 7 1
7 7 8 1
8 8 9 1
9 9 10 1
10 10 11 1
11 11 12 1
12 12 13 1
13 13 14 1
14 14 15 1
15 15 16 1
16 16 17 1
17 17 18 1
18 18 19 1
19 19 20 1
20 20 21 1
21 21 22 1
22 22 23 1
23 23 24 1
24 24 25 1
25 25 26 1
