@<TRIPOS>MOLECULE
*****
 13 12 0 0 0
SMALL
GASTEIGER
Energy = 0

@<TRIPOS>ATOM
      1 A         0    -0.0    0.0 A     1  A         0.0000
      2 B        30    -0.0    0.0 B     1  B         0.0000
      3 C        60    -0.0    0.0 C     1  C         0.0000
      4 B        90    -0.0    0.0 B     1  B         0.0000
      5 C       120    -0.0    0.0 C     1  C         0.0000
      6 B       150    -0.0    0.0 B     1  B         0.0000
      7 C       180    -0.0    0.0 C     1  C         0.0000
      8 B       210    -0.0    0.0 B     1  B         0.0000
      9 C       240    -0.0    0.0 C     1  C         0.0000
     10 B       270    -0.0    0.0 B     1  B         0.0000
     11 C       300    -0.0    0.0 C     1  C         0.0000
     12 B       330    -0.0    0.0 B     1  B         0.0000
     13 C       360    -0.0    0.0 C     1  C         0.0000
@<TRIPOS>BOND
     1     1     2    1
     2     2     3    1
     3     3     4    1
     4     4     5    1
     5     5     6    1
     6     6     7    1
     7     7     8    1
     8     8     9    1
     9     9    10    1
    10    10    11    1
    11    11    12    1
    12    12    13    1

