@<TRIPOS>MOLECULE
_Porphyrin_Benzaldehyde_Benzaldehyde_Benzaldehyde_Benzaldehyde_(2R)-2-Aminopentanedioic acid_(2R)-2-Aminopentanedioic acid_(2R)-2-Aminopentanedioic acid_(2R)-2-Aminopentanedioic acid_(2R)-2-Aminopentanedioic acid_(2R)-2-Aminopentanedioic acid_(2R)-2-Aminopentanedioic acid_(2R)-2-Aminopentanedioic acid___
 252 260 0 0 0
SMALL
GASTEIGER
Energy = 0

@<TRIPOS>ATOM
      1 C           9.3398    5.0340   -7.8766 C.2     0  UNK0        0
      2 C           9.1914    4.0194   -7.0584 C.2     0  UNK0        0
      3 C           8.0903    3.1968   -7.5621 C.2     0  UNK0        0
      4 C           8.3445    4.9034   -8.9375 C.2     0  UNK0        0
      5 N           7.6203    3.8300   -8.7564 POR     0  POR         0
      6 C           8.2308    5.9379  -10.0526 C.2     0  UNK0        0
      7 C           7.2613    5.8126  -11.0141 C. 1    0  UNK0        0
      8 N           6.3276    4.8173  -11.1243 N. 1    0  UNK0        0
      9 C           5.6132    5.1144  -12.2453 C. 1    0  UNK0        0
     10 C           7.1116    6.7107  -12.0408 C. 1    0  UNK0        0
     11 C           6.0875    6.2802  -12.8044 C. 1    0  UNK0        0
     12 C           4.5728    4.3943  -12.7949 C.2     0  UNK0        0
     13 C           4.0756    3.0993  -12.1577 C.2     0  UNK0        0
     14 N           4.5364    2.4779  -11.1089 POR     0  UNK0        0
     15 C           2.7864    1.2646  -12.0393 C.2     0  UNK0        0
     16 C           2.9682    2.3478  -12.7494 C.2     0  UNK0        0
     17 C           4.8936    0.4057   -8.8545 C. 1    0  UNK0        0
     18 N           5.7969    1.4297   -8.6903 N. 1    0  UNK0        0
     19 C           6.5244    1.1535   -7.5614 C. 1    0  UNK0        0
     20 C           6.0766   -0.0424   -7.0162 C. 1    0  UNK0        0
     21 C           5.0525   -0.5163   -7.8357 C. 1    0  UNK0        0
     22 C           7.6614    2.0176   -6.9474 C.2     0  UNK0        0
     23 C           3.8722    0.2654  -10.0057 C.2     0  UNK0        0
     24 C           3.7764    1.2711  -10.9648 C.2     0  UNK0        0
     25 C           1.4431   -2.8882   -9.4301 C. 1    0  UNK0        0
     26 C           2.4105   -1.8419   -9.1411 C. 1    0  UNK0        0
     27 C           2.9038   -0.9856  -10.1730 C. 1    0  UNK0        0
     28 C           2.4357   -1.2964  -11.4668 C. 1    0  UNK0        0
     29 C           1.5193   -2.3064  -11.7522 C. 1    0  UNK0        0
     30 C           0.9751   -3.1110  -10.7607 C. 1    0  UNK0        0
     31 C          -0.0583   -4.1507  -11.2902 C.3     0  UNK0        0
     32 C           3.9458    6.3651  -16.1052 C. 1    0  UNK0        0
     33 C           4.4382    5.9731  -14.8599 C. 1    0  UNK0        0
     34 C           3.9174    4.8773  -14.1376 C. 1    0  UNK0        0
     35 C           2.8243    4.2127  -14.7444 C. 1    0  UNK0        0
     36 C           2.3144    4.6038  -16.0023 C. 1    0  UNK0        0
     37 C           2.8843    5.6850  -16.6893 C. 1    0  UNK0        0
     38 C           2.5078    6.0299  -18.1070 C.3     0  UNK0        0
     39 C          11.2411    8.3417   -9.2630 C. 1    0  UNK0        0
     40 C          10.3004    7.2890   -9.1768 C. 1    0  UNK0        0
     41 C           9.2455    7.1464  -10.1058 C. 1    0  UNK0        0
     42 C           9.1857    8.1454  -11.1126 C. 1    0  UNK0        0
     43 C          10.1190    9.1965  -11.2074 C. 1    0  UNK0        0
     44 C          11.1575    9.3069  -10.2798 C. 1    0  UNK0        0
     45 C          12.2654   10.3435  -10.4508 C.3     0  UNK0        0
     46 C           9.8248    2.2241   -3.6716 C. 1    0  UNK0       -0
     47 C           9.1699    2.5192   -4.8770 C. 1    0  UNK0       -0
     48 C           8.3714    1.5932   -5.5988 C. 1    0  UNK0        0
     49 C           8.2629    0.3103   -5.0099 C. 1    0  UNK0       -0
     50 C           8.9372   -0.0037   -3.7868 C. 1    0  UNK0       -0
     51 C           9.7354    0.9549   -3.1116 C. 1    0  UNK0       -0
     52 C          10.3653    0.6711   -1.7328 C.3     0  UNK0        0
     53 C          13.7236    0.6603   -0.0222 C.3     0  UNK0        0
     54 C          12.2164    1.0247   -0.1727 C.3     0  UNK0        0
     55 N          11.8024    1.0145   -1.6029 N.3     0  UNK0       -0
     56 C          11.9463    2.4076    0.4524 C.3     0  UNK0        0
     57 C          11.7779    2.3477    1.9764 C.3     0  UNK0        0
     58 C          12.9583    2.9516    2.7427 C.3     0  UNK0        0
     59 C          14.4188    4.5111    4.8474 C.3     0  UNK0        0
     60 C          12.9431    4.6352    4.4326 C.3     0  UNK0        0
     61 N          12.7622    4.3783    3.0003 N.3     0  UNK0       -0
     62 C          12.3181    5.9845    4.8309 C.3     0  UNK0        0
     63 C          13.1956    7.1939    4.5166 C.3     0  UNK0        0
     64 C          12.6945    8.3978    5.2996 C.3     0  UNK0        0
     65 C          15.9863   -1.0185    2.0960 C.3     0  UNK0        0
     66 C          15.5990    0.3246    1.4555 C.3     0  UNK0        0
     67 N          14.1376    0.4840    1.3832 N.3     0  UNK0       -0
     68 C          16.2857    1.5316    2.1401 C.3     0  UNK0        0
     69 C          16.5167    1.3954    3.6542 C.3     0  UNK0        0
     70 C          18.0072    1.5539    3.9661 C.3     0  UNK0        0
     71 C          14.1842   11.7352    5.7517 C.3     1  UNK1        0
     72 CA         13.2213   10.5835    6.0309 C.3     1  UNK1        0
     73 N          13.7871    9.3346    5.5299 N.3     1  UNK1       -0
     74 C          12.9241   10.4841    7.5260 C.3     1  UNK1        0
     75 C          12.0771   11.6573    7.9894 C.3     1  UNK1        0
     76 C          12.0461   11.6836    9.5033 C.3     1  UNK1        0
     77 O          10.9313   12.3996    9.9363 GLU     0  UNK0       -0
     78 O          15.3852   11.5590    6.4445 GLU     1  UNK1       -0
     79 C          16.8890    5.7974    5.5480 C.3     1  UNK1        0
     80 CA         16.0525    4.9841    6.5394 C.3     1  UNK1        0
     81 N          14.6273    5.0081    6.2072 N.3     1  UNK1       -0
     82 C          16.2612    5.5025    7.9649 C.3     1  UNK1        0
     83 C          15.7926    6.9475    8.1230 C.3     1  UNK1        0
     84 C          16.1718    7.4902    9.4890 C.3     1  UNK1        0
     85 O          15.3881    6.8938   10.4769 GLU     0  UNK0       -0
     86 O          18.2470    5.5561    5.7591 GLU     1  UNK1       -0
     87 C          20.4081    0.1639    5.5315 C.3     1  UNK1        0
     88 CA         19.7109    1.5206    5.6036 C.3     1  UNK1        0
     89 N          18.2700    1.3799    5.3931 N.3     1  UNK1       -0
     90 C          20.0146    2.2372    6.9223 C.3     1  UNK1        0
     91 C          19.6117    1.4416    8.1560 C.3     1  UNK1        0
     92 C          20.5394    1.8159    9.2962 C.3     1  UNK1        0
     93 O          19.9187    1.5584   10.5171 GLU     0  UNK0       -0
     94 O          21.7818    0.3007    5.7453 GLU     1  UNK1       -0
     95 C          18.8102   -3.1952    2.1495 C.3     1  UNK1        0
     96 CA         17.7688   -2.3644    2.8969 C.3     1  UNK1        0
     97 N          17.4385   -1.1806    2.1102 N.3     1  UNK1       -0
     98 C          18.2881   -1.9622    4.2793 C.3     1  UNK1        0
     99 C          18.5253   -3.1883    5.1548 C.3     1  UNK1        0
    100 C          19.4815   -2.8742    6.2942 C.3     1  UNK1        0
    101 O          18.8523   -2.0760    7.2498 GLU     0  UNK0       -0
    102 O          19.9968   -2.4754    1.9844 GLU     1  UNK1       -0
    103 O          10.8278   28.6174  -13.1333 GLU     0  UNK0       -0
    104 C          11.6856   27.6874  -12.5481 C.3     1  UNK1        0
    105 C          11.7284   26.4320  -13.3948 C.3     1  UNK1        0
    106 C          12.2634   25.2812  -12.5597 C.3     1  UNK1        0
    107 CA         12.4286   24.0234  -13.4046 C.3     1  UNK1        0
    108 N          12.6403   22.8677  -12.5408 N.3     1  UNK1       -0
    109 C          13.5845   24.1734  -14.3947 C.3     1  UNK1        0
    110 O          15.8075   25.3335  -10.1769 GLU     0  UNK0       -0
    111 O          14.7776   24.4674  -13.7299 GLU     1  UNK1       -0
    112 C          16.7607   24.9387  -11.1172 C.3     1  UNK1        0
    113 C          17.0427   23.4483  -11.0000 C.3     1  UNK1        0
    114 C          15.7790   22.6475  -11.2757 C.3     1  UNK1        0
    115 CA         16.0664   21.2161  -11.7230 C.3     1  UNK1        0
    116 N          14.8080   20.4728  -11.6492 N.3     1  UNK1       -0
    117 C          16.6168   21.2272  -13.1533 C.3     1  UNK1        0
    118 O          17.9474   21.6489  -13.1614 GLU     1  UNK1       -0
    119 C          11.8540   21.7646  -13.0802 C.3     0  UNK0        0
    120 C          12.0723   20.5051  -12.2511 C.3     0  UNK0        0
    121 C          12.5721   19.3765  -13.1521 C.3     0  UNK0        0
    122 C          12.6234   16.3648  -12.0000 C.3     0  UNK0        0
    123 C          13.6136   18.4500  -12.4908 C.3     0  UNK0        0
    124 N          13.0761   17.6260  -11.4048 N.3     0  UNK0       -0
    125 O          22.4781   22.1701  -10.4454 GLU     0  UNK0       -0
    126 C          12.6469   15.2083  -10.9910 C.3     0  UNK0        0
    127 C          14.9644   19.1054  -12.1441 C.3     0  UNK0        0
    128 C          22.3962   21.0463  -11.2653 C.3     1  UNK1        0
    129 C          12.2588   13.8879  -11.6884 C.3     0  UNK0        0
    130 C          21.7645   19.9018  -10.5009 C.3     1  UNK1        0
    131 C          12.8485   12.5811  -11.0918 C.3     0  UNK0        0
    132 N          11.8307   11.7509  -10.4107 N.3     0  UNK0       -0
    133 C          20.6117   19.3357  -11.3133 C.3     1  UNK1        0
    134 C          14.1276   12.7916  -10.2595 C.3     0  UNK0        0
    135 CA         20.3299   17.8814  -10.9539 C.3     1  UNK1        0
    136 N          19.0484   17.4885  -11.5274 N.3     1  UNK1       -0
    137 C          21.4239   16.9729  -11.5088 C.3     1  UNK1        0
    138 O          22.6093   17.1192  -10.7871 GLU     1  UNK1       -0
    139 C          18.3439   16.7105  -10.5185 C.3     0  UNK0        0
    140 C          17.1129   16.0354  -11.1132 C.3     0  UNK0        0
    141 O          23.6279   13.6905   -8.2005 GLU     0  UNK0       -0
    142 C          16.3912   15.2740  -10.0016 C.3     0  UNK0        0
    143 C          23.6481   13.6932   -9.5958 C.3     1  UNK1        0
    144 C          16.2960   13.7498  -10.2103 C.3     0  UNK0        0
    145 N          15.1743   13.4057  -11.0779 N.3     0  UNK0       -0
    146 C          22.4653   12.9110  -10.1393 C.3     1  UNK1        0
    147 C          17.5822   13.1062  -10.7377 C.3     0  UNK0        0
    148 C          21.1681   13.6405   -9.8288 C.3     1  UNK1        0
    149 CA         19.9807   13.0087  -10.5459 C.3     1  UNK1        0
    150 N          18.7536   13.6175  -10.0305 N.3     1  UNK1       -0
    151 C          20.1209   13.1697  -12.0675 C.3     1  UNK1        0
    152 O          20.0874   14.5144  -12.4370 GLU     1  UNK1       -0
    153 O          -9.6878   16.2409  -26.3485 GLU     0  UNK0       -0
    154 C          -8.3019   16.2654  -26.4952 C.3     1  UNK1        0
    155 C          -7.7292   14.8908  -26.2095 C.3     1  UNK1        0
    156 C          -6.2524   15.0372  -25.8697 C.3     1  UNK1        0
    157 CA         -5.4778   13.7186  -25.9407 C.3     1  UNK1        0
    158 N          -6.0011   12.7511  -24.9783 N.3     1  UNK1       -0
    159 C          -5.4827   13.1407  -27.3506 C.3     1  UNK1        0
    160 O          -2.1985   17.4379  -25.5362 GLU     0  UNK0       -0
    161 O          -4.8803   14.0365  -28.2363 GLU     1  UNK1       -0
    162 C          -2.4475   16.6522  -26.6611 C.3     1  UNK1        0
    163 C          -2.3263   15.1831  -26.3046 C.3     1  UNK1        0
    164 C          -0.8637   14.7809  -26.1270 C.3     1  UNK1        0
    165 CA         -0.7218   13.2773  -25.8796 C.3     1  UNK1        0
    166 N          -1.4027   12.9222  -24.6281 N.3     1  UNK1       -0
    167 C          -1.2285   12.4933  -27.0974 C.3     1  UNK1        0
    168 O          -0.3476   12.6539  -28.1673 GLU     1  UNK1       -0
    169 C          -4.8995   11.9486  -24.4454 C.3     0  UNK0        0
    170 C          -4.0766   12.7764  -23.4654 C.3     0  UNK0        0
    171 C          -3.1956   11.9538  -22.5147 C.3     0  UNK0        0
    172 C          -1.2305    9.8049  -21.2939 C.3     0  UNK0        0
    173 C          -2.1065   11.0523  -23.1360 C.3     0  UNK0        0
    174 N          -0.9791   10.9104  -22.2159 N.3     0  UNK0       -0
    175 O           2.9741   11.6635  -24.7390 GLU     0  UNK0       -0
    176 C           0.1012    9.2183  -20.8312 C.3     0  UNK0        0
    177 C          -1.5922   11.4765  -24.5169 C.3     0  UNK0        0
    178 C           3.9064   11.7049  -25.7752 C.3     1  UNK1        0
    179 C          -0.0616    8.2498  -19.6552 C.3     0  UNK0        0
    180 C           4.4519   10.3140  -26.0271 C.3     1  UNK1        0
    181 C           1.1562    7.3265  -19.5547 C.3     0  UNK0        0
    182 N           1.1810    6.6249  -18.2605 N.3     0  UNK0       -0
    183 C           3.7123    9.6693  -27.1899 C.3     1  UNK1        0
    184 C           1.1093    6.3390  -20.7227 C.3     0  UNK0        0
    185 CA          4.1418    8.2134  -27.4159 C.3     1  UNK1        0
    186 N           3.8673    7.3912  -26.2421 N.3     1  UNK1       -0
    187 C           5.6196    8.1117  -27.7746 C.3     1  UNK1        0
    188 O           5.8750    8.7786  -28.9737 GLU     1  UNK1       -0
    189 C           2.4238    7.2269  -26.1245 C.3     0  UNK0        0
    190 C           2.0911    6.2048  -25.0521 C.3     0  UNK0        0
    191 O           9.0084    5.9438  -22.1712 GLU     0  UNK0       -0
    192 C           2.4804    6.7040  -23.6657 C.3     0  UNK0        0
    193 C           8.8739    4.9988  -23.1884 C.3     1  UNK1        0
    194 C           2.2440    5.6103  -22.6256 C.3     0  UNK0        0
    195 N           2.4392    6.1219  -21.2752 N.3     0  UNK0       -0
    196 C           7.4431    4.4997  -23.2478 C.3     1  UNK1        0
    197 C           3.0873    4.3522  -22.8712 C.3     0  UNK0        0
    198 C           6.5194    5.5954  -23.7652 C.3     1  UNK1        0
    199 CA          5.0863    5.1065  -23.9699 C.3     1  UNK1        0
    200 N           4.5236    4.5864  -22.7211 N.3     1  UNK1       -0
    201 C           4.9570    4.1297  -25.1460 C.3     1  UNK1        0
    202 O         -17.3432   -8.5381  -13.2940 GLU     0  UNK0       -0
    203 C         -16.4136   -8.2557  -14.2959 C.3     1  UNK1        0
    204 C         -15.2048   -7.5447  -13.7074 C.3     1  UNK1        0
    205 C         -14.3755   -8.5021  -12.8571 C.3     1  UNK1        0
    206 CA        -12.9688   -8.7602  -13.4123 C.3     1  UNK1        0
    207 N         -12.1850   -7.5313  -13.5207 N.3     1  UNK1       -0
    208 C         -12.9660   -9.5647  -14.7144 C.3     1  UNK1        0
    209 O         -14.2130   -6.1357  -17.0879 GLU     0  UNK0       -0
    210 O         -13.6195   -8.8830  -15.7420 GLU     1  UNK1       -0
    211 C         -12.9326   -5.7509  -17.4835 C.3     1  UNK1        0
    212 C         -11.9434   -6.8447  -17.1368 C.3     1  UNK1        0
    213 C         -10.6960   -6.2274  -16.5263 C.3     1  UNK1        0
    214 CA         -9.6531   -7.2902  -16.1871 C.3     1  UNK1        0
    215 N          -8.5532   -6.6808  -15.4409 N.3     1  UNK1       -0
    216 C          -9.1365   -7.9772  -17.4522 C.3     1  UNK1        0
    217 O          -8.5887   -7.0433  -18.3347 GLU     1  UNK1       -0
    218 C         -10.8513   -7.8099  -12.9933 C.3     0  UNK0        0
    219 C         -10.0279   -6.5246  -12.9119 C.3     0  UNK0        0
    220 C          -8.6476   -6.7780  -12.2826 C.3     0  UNK0        0
    221 C          -5.5933   -6.1198  -12.1616 C.3     0  UNK0        0
    222 C          -7.4927   -7.1695  -13.2396 C.3     0  UNK0        0
    223 N          -6.4511   -6.1345  -13.3590 N.3     0  UNK0       -0
    224 O          -0.9147  -15.1706  -13.9241 GLU     0  UNK0       -0
    225 C          -4.1196   -5.8273  -12.5228 C.3     0  UNK0        0
    226 C          -7.9329   -7.7135  -14.6120 C.3     0  UNK0        0
    227 C          -1.4208  -13.9344  -14.3274 C.3     1  UNK1        0
    228 C          -3.2864   -5.2765  -11.3350 C.3     0  UNK0        0
    229 C          -2.1178  -14.0734  -15.6680 C.3     1  UNK1        0
    230 C          -1.8168   -5.7782  -11.3199 C.3     0  UNK0        0
    231 N          -0.9308   -4.9706  -10.4210 N.3     0  UNK0       -0
    232 C          -3.4172  -14.8456  -15.5147 C.3     1  UNK1        0
    233 C          -1.8045   -7.2891  -10.9787 C.3     0  UNK0        0
    234 CA         -4.6335  -13.9202  -15.4813 C.3     1  UNK1        0
    235 N          -4.6755  -13.1254  -14.2556 N.3     1  UNK1       -0
    236 C          -5.9061  -14.7497  -15.6126 C.3     1  UNK1        0
    237 O          -6.0020  -15.6907  -14.5835 GLU     1  UNK1       -0
    238 C          -4.2376  -11.7715  -14.5794 C.3     0  UNK0        0
    239 C          -4.3850  -10.8597  -13.3649 C.3     0  UNK0        0
    240 O          -1.1731  -16.6094  -11.1099 GLU     0  UNK0       -0
    241 C          -3.3031   -9.7745  -13.3914 C.3     0  UNK0        0
    242 C          -1.8028  -15.9828  -10.0333 C.3     1  UNK1        0
    243 C          -2.8694   -9.2768  -11.9926 C.3     0  UNK0        0
    244 N          -2.0247   -8.0858  -12.1957 N.3     0  UNK0       -0
    245 C          -1.0769  -14.6934   -9.6786 C.3     1  UNK1        0
    246 C          -2.0979  -10.3551  -11.1841 C.3     0  UNK0        0
    247 C          -1.2542  -13.6537  -10.7787 C.3     1  UNK1        0
    248 CA         -2.3576  -12.6397  -10.4690 C.3     1  UNK1        0
    249 N          -2.4640  -11.7137  -11.5849 N.3     1  UNK1       -0
    250 C          -3.7092  -13.3283  -10.2669 C.3     1  UNK1        0
    251 O          -4.0777  -14.0542  -11.4037 GLU     1  UNK1       -0
    252 O           5.6296    2.9328  -24.8962 GLU     1  UNK1       -0
@<TRIPOS>BOND
     1     1     1    1
     2     1     1    1
     3     1     1    1
     4     1     1    1
     5     1     1    1
     6     1     1    1
     7     1     1    1
     8     1     1    1
     9     1     1    1
    10     1     1    1
    11     1     1    1
    12     1     1    1
    13     1     1    1
    14     1     1    1
    15     1     1    1
    16     1     1    1
    17     1     1    1
    18     1     1    1
    19     1     1    1
    20     1     1    1
    21     1     1    1
    22     1     1    1
    23     1     1    1
    24     1     1    1
    25     1     1    1
    26     1     1    1
    27     1     1    1
    28     1     1    1
    29     1     1    1
    30     1     1    1
    31     1     1    1
    32     1     1    1
    33     1     1    1
    34     1     1    1
    35     1     1    1
    36     1     1    1
    37     1     1    1
    38     1     1    1
    39     1     1    1
    40     1     1    1
    41     1     1    1
    42     1     1    1
    43     1     1    1
    44     1     1    1
    45     1     1    1
    46     1     1    1
    47     1     1    1
    48     1     1    1
    49     1     1    1
    50     1     1    1
    51     1     1    1
    52    47    48    1
    53    48    49    1
    54    49    50    1
    55    50    51    1
    56    51    46    1
    57    51    52    1
    58    41     6    1
    59    34    12    1
    60    48    22    1
    61    53    54    1
    62    54    55    1
    63    54    56    1
    64    56    57    1
    65    57    58    1
    66    59    60    1
    67    60    61    1
    68    60    62    1
    69    62    63    1
    70    63    64    1
    71    65    66    1
    72    66    67    1
    73    66    68    1
    74    68    69    1
    75    69    70    1
    76    71    72    1
    77    72    73    1
    78    72    74    1
    79    74    75    1
    80    75    76    1
    81    76    77    1
    82    71    78    1
    83    79    80    1
    84    80    81    1
    85    80    82    1
    86    82    83    1
    87    83    84    1
    88    84    85    1
    89    79    86    1
    90    87    88    1
    91    88    89    1
    92    88    90    1
    93    90    91    1
    94    91    92    1
    95    92    93    1
    96    87    94    1
    97    95    96    1
    98    96    97    1
    99    96    98    1
   100    98    99    1
   101    99   100    1
   102   100   101    1
   103    95   102    1
   104    73    64    1
   105    81    59    1
   106    61    58    1
   107    67    53    1
   108    89    70    1
   109    97    65    1
   110   104   103    1
   111   105   104    1
   112   106   105    1
   113   107   106    1
   114   109   107    1
   115   107   108    1
   116   108   119    1
   117   109   111    1
   118   112   110    1
   119   113   112    1
   120   114   113    1
   121   115   114    1
   122   117   115    1
   123   115   116    1
   124   116   127    1
   125   117   118    1
   126   120   119    1
   127   121   120    1
   128   123   121    1
   129   126   122    1
   130   124   122    1
   131   127   123    1
   132   123   124    1
   133   128   125    1
   134   129   126    1
   135   130   128    1
   136   131   129    1
   137   133   130    1
   138   134   131    1
   139   131   132    1
   140   135   133    1
   141   145   134    1
   142   137   135    1
   143   135   136    1
   144   136   139    1
   145   137   138    1
   146   140   139    1
   147   142   140    1
   148   143   141    1
   149   144   142    1
   150   146   143    1
   151   147   144    1
   152   144   145    1
   153   148   146    1
   154   150   147    1
   155   149   148    1
   156   151   149    1
   157   149   150    1
   158   151   152    1
   159   154   153    1
   160   155   154    1
   161   156   155    1
   162   157   156    1
   163   159   157    1
   164   157   158    1
   165   158   169    1
   166   159   161    1
   167   162   160    1
   168   163   162    1
   169   164   163    1
   170   165   164    1
   171   167   165    1
   172   165   166    1
   173   166   177    1
   174   167   168    1
   175   170   169    1
   176   171   170    1
   177   173   171    1
   178   176   172    1
   179   174   172    1
   180   177   173    1
   181   173   174    1
   182   178   175    1
   183   179   176    1
   184   180   178    1
   185   181   179    1
   186   183   180    1
   187   184   181    1
   188   181   182    1
   189   185   183    1
   190   195   184    1
   191   187   185    1
   192   185   186    1
   193   186   189    1
   194   187   188    1
   195   190   189    1
   196   192   190    1
   197   193   191    1
   198   194   192    1
   199   196   193    1
   200   197   194    1
   201   194   195    1
   202   198   196    1
   203   200   197    1
   204   199   198    1
   205   201   199    1
   206   199   200    1
   207   203   202    1
   208   204   203    1
   209   205   204    1
   210   206   205    1
   211   208   206    1
   212   206   207    1
   213   207   218    1
   214   208   210    1
   215   211   209    1
   216   212   211    1
   217   213   212    1
   218   214   213    1
   219   216   214    1
   220   214   215    1
   221   215   226    1
   222   216   217    1
   223   219   218    1
   224   220   219    1
   225   222   220    1
   226   225   221    1
   227   223   221    1
   228   226   222    1
   229   222   223    1
   230   227   224    1
   231   228   225    1
   232   229   227    1
   233   230   228    1
   234   232   229    1
   235   233   230    1
   236   230   231    1
   237   234   232    1
   238   244   233    1
   239   236   234    1
   240   234   235    1
   241   235   238    1
   242   236   237    1
   243   239   238    1
   244   241   239    1
   245   242   240    1
   246   243   241    1
   247   245   242    1
   248   246   243    1
   249   243   244    1
   250   247   245    1
   251   249   246    1
   252   248   247    1
   253   250   248    1
   254   248   249    1
   255   250   251    1
   256    55    52    1
   257   132    45    1
   258   182    38    1
   259   231    31    1
   260   201   252    1
