@<TRIPOS>MOLECULE
_Porphyrin_Benzaldehyde_Benzaldehyde_Benzaldehyde_Benzaldehyde_(2R)-2-Aminopentanedioic acid_(2R)-2-Aminopentanedioic acid_(2R)-2-Aminopentanedioic acid_(2R)-2-Aminopentanedioic acid_(2R)-2-Aminopentanedioic acid_(2R)-2-Aminopentanedioic acid_(2R)-2-Aminopentanedioic acid_(2R)-2-Aminopentanedioic acid___
 164 172 0 0 0
SMALL
GASTEIGER
Energy = 0

@<TRIPOS>ATOM
      1 C           9.1212    5.1523   -7.8203 C.3     0  UNK0        0
      2 C           8.9415    4.1521   -6.9960 C.3     0  UNK0        0
      3 C           7.8669    3.3327   -7.5437 C.3     0  UNK0        0
      4 C           8.1699    5.0081   -8.9240 C.3     0  UNK0        0
      5 N           7.4405    3.9441   -8.7589 N.3     0  UNK0       -0
      6 C           8.1151    5.9977  -10.0735 C.3     0  UNK0        0
      7 C           7.1983    5.8550  -11.0811 C.3     0  UNK0        0
      8 N           6.2549    4.8703  -11.2083 N.3     0  UNK0       -0
      9 C           5.6005    5.1447  -12.3692 C.3     0  UNK0        0
     10 C           7.1129    6.7240  -12.1401 C.3     0  UNK0        0
     11 C           6.1205    6.2856  -12.9410 C.3     0  UNK0        0
     12 C           4.5690    4.4280  -12.9414 C.3     0  UNK0        0
     13 C           4.0120    3.1697  -12.2868 C.3     0  UNK0        0
     14 N           4.4121    2.5951  -11.1952 N.3     0  UNK0       -0
     15 C           2.6906    1.3496  -12.1427 C.3     0  UNK0        0
     16 C           2.9206    2.3983  -12.8967 C.3     0  UNK0        0
     17 C           4.7443    0.5936   -8.9191 C.3     0  UNK0        0
     18 N           5.6419    1.6077   -8.7525 N.3     0  UNK0       -0
     19 C           6.3282    1.3242   -7.6081 C.3     0  UNK0        0
     20 C           5.8605    0.1467   -7.0599 C.3     0  UNK0        0
     21 C           4.8659   -0.3142   -7.8860 C.3     0  UNK0        0
     22 C           7.4210    2.1638   -6.9614 C.3     0  UNK0        0
     23 C           3.7200    0.4520  -10.0404 C.3     0  UNK0        0
     24 C           3.6265    1.4126  -11.0269 C.3     0  UNK0        0
     25 C           2.1616   -3.0684   -9.3369 C.3     0  UNK0        0
     26 C           2.9504   -1.9009   -9.2182 C.3     0  UNK0        0
     27 C           2.7899   -0.8050  -10.0946 C.3     0  UNK0        0
     28 C           1.7703   -0.9394  -11.0681 C.3     0  UNK0        0
     29 C           0.9813   -2.0935  -11.1912 C.3     0  UNK0        0
     30 C           1.1734   -3.1727  -10.3299 C.3     0  UNK0        0
     31 C           0.4298   -4.4789  -10.5512 C.3     0  UNK0        0
     32 C           4.0976    6.2969  -16.3219 C.3     0  UNK0        0
     33 C           4.5635    5.9234  -15.0631 C.3     0  UNK0        0
     34 C           3.9791    4.8803  -14.3126 C.3     0  UNK0        0
     35 C           2.8675    4.2421  -14.9067 C.3     0  UNK0        0
     36 C           2.3869    4.6126  -16.1751 C.3     0  UNK0        0
     37 C           3.0093    5.6439  -16.8857 C.3     0  UNK0        0
     38 C           2.6095    5.9917  -18.2838 C.3     0  UNK0        0
     39 C          11.0440    8.3876   -9.1070 C.3     0  UNK0        0
     40 C          10.0846    7.3648   -9.0693 C.3     0  UNK0        0
     41 C           9.1429    7.1783  -10.1015 C.3     0  UNK0        0
     42 C           9.2132    8.1003  -11.1735 C.3     0  UNK0        0
     43 C          10.1709    9.1249  -11.2226 C.3     0  UNK0        0
     44 C          11.0918    9.2735  -10.1847 C.3     0  UNK0        0
     45 C          12.2032   10.2839  -10.2701 C.3     0  UNK0        0
     46 C           9.3936    2.2412   -3.6129 C.3     0  UNK0        0
     47 C           8.8016    2.6062   -4.8222 C.3     0  UNK0        0
     48 C           8.0562    1.7064   -5.6164 C.3     0  UNK0        0
     49 C           7.9257    0.3932   -5.1130 C.3     0  UNK0        0
     50 C           8.5324    0.0116   -3.8929 C.3     0  UNK0        0
     51 C           9.2769    0.9388   -3.1415 C.3     0  UNK0        0
     52 C           9.8893    0.5678   -1.8099 C.3     0  UNK0        0
     53 C          13.2486    0.5514   -0.2822 C.3     0  UNK0        0
     54 C          11.7646    0.9396   -0.3643 C.3     0  UNK0        0
     55 C          11.5481    2.3645    0.1680 C.3     0  UNK0        0
     56 C          12.8030    2.9472    2.2857 C.3     0  UNK0        0
     57 C          14.3348    4.4065    4.4521 C.3     0  UNK0        0
     58 C          12.8552    4.5192    4.0543 C.3     0  UNK0        0
     59 C          12.2119    5.8283    4.5282 C.3     0  UNK0        0
     60 C          12.5406    8.2428    4.9680 C.3     0  UNK0        0
     61 C          15.5479   -1.1465    1.7393 C.3     0  UNK0        0
     62 C          15.1399    0.1604    1.0595 C.3     0  UNK0        0
     63 C          15.8793    1.3835    1.6257 C.3     0  UNK0        0
     64 C          17.4243    1.7933    3.5056 C.3     0  UNK0        0
     65 CA         13.1038   10.3918    5.7641 C.3     1  UNK1        0
     66 C          12.1122   11.3828    7.8409 C.3     1  UNK1        0
     67 O          11.2434   12.2890    9.8568 GLU     0  UNK0       -0
     68 O          15.3044   11.3228    6.0639 GLU     1  UNK1       -0
     69 CA         15.9564    4.7748    6.1780 C.3     1  UNK1        0
     70 C          15.6604    6.5610    7.9492 C.3     1  UNK1        0
     71 O          15.2535    6.3024   10.2871 GLU     0  UNK0       -0
     72 O          18.1310    5.5545    5.5245 GLU     1  UNK1       -0
     73 CA         19.1121    1.8082    5.1244 C.3     1  UNK1        0
     74 C          19.0621    1.5173    7.6510 C.3     1  UNK1        0
     75 O          19.3952    1.2390    9.9897 GLU     0  UNK0       -0
     76 O          21.2561    0.7388    4.9790 GLU     1  UNK1       -0
     77 CA         17.3644   -2.4803    2.4356 C.3     1  UNK1        0
     78 C          18.0573   -3.1248    4.7621 C.3     1  UNK1        0
     79 O          18.0387   -1.8448    6.7812 GLU     0  UNK0       -0
     80 O          19.6071   -2.4820    1.5578 GLU     1  UNK1       -0
     81 O          11.1799   28.4088  -13.2094 GLU     0  UNK0       -0
     82 C          11.6434   26.0814  -13.3366 C.3     1  UNK1        0
     83 CA         12.1954   23.6323  -13.3696 C.3     1  UNK1        0
     84 O          16.0596   24.7394   -9.6513 GLU     0  UNK0       -0
     85 O          14.5793   23.9397  -13.5842 GLU     1  UNK1       -0
     86 C          17.0118   22.9533  -10.9290 C.3     1  UNK1        0
     87 CA         15.9876   20.7456  -11.6178 C.3     1  UNK1        0
     88 O          17.4001   21.4933  -13.4213 GLU     1  UNK1       -0
     89 C          12.0619   21.2707  -13.3037 C.3     0  UNK0        0
     90 C          12.8117   18.8998  -13.2497 C.3     0  UNK0        0
     91 C          12.2815   16.1657  -11.8751 C.3     0  UNK0        0
     92 C          13.6960   17.9588  -12.4133 C.3     0  UNK0        0
     93 O          22.6132   21.9539  -10.5782 GLU     0  UNK0       -0
     94 C          15.0239   18.5812  -11.9571 C.3     0  UNK0        0
     95 C          12.2209   13.6854  -11.7590 C.3     0  UNK0        0
     96 C          21.3075   19.9758  -10.7066 C.3     1  UNK1        0
     97 C          12.7731   12.4142  -11.0883 C.3     0  UNK0        0
     98 C          14.0159   12.6670  -10.2258 C.3     0  UNK0        0
     99 CA         19.9455   17.8855  -10.9531 C.3     1  UNK1        0
    100 O          22.2077   17.1986  -10.4949 GLU     1  UNK1       -0
    101 C          18.0242   16.6502  -10.4741 C.3     0  UNK0        0
    102 O          23.5513   13.4270   -8.1929 GLU     0  UNK0       -0
    103 C          16.2650   15.0331   -9.8977 C.3     0  UNK0        0
    104 C          16.2010   13.5202  -10.1557 C.3     0  UNK0        0
    105 C          22.3687   12.7307  -10.1489 C.3     1  UNK1        0
    106 C          17.4950   12.9216  -10.7075 C.3     0  UNK0        0
    107 CA         19.8852   12.8381  -10.5304 C.3     1  UNK1        0
    108 O          19.9624   14.3550  -12.4134 GLU     1  UNK1       -0
    109 O          -9.4705   15.9612  -26.4580 GLU     0  UNK0       -0
    110 C          -7.5064   14.6608  -26.1449 C.3     1  UNK1        0
    111 CA         -5.3423   13.3898  -25.7725 C.3     1  UNK1        0
    112 O          -1.6130   17.4706  -25.2670 GLU     0  UNK0       -0
    113 O          -4.6728   13.4338  -28.0701 GLU     1  UNK1       -0
    114 C          -2.1080   15.3025  -26.1246 C.3     1  UNK1        0
    115 CA         -0.7947   13.1666  -25.8190 C.3     1  UNK1        0
    116 O          -0.7246   12.6682  -28.1678 GLU     1  UNK1       -0
    117 C          -4.9032   11.7998  -24.0599 C.3     0  UNK0        0
    118 C          -3.0853   12.0115  -22.2692 C.3     0  UNK0        0
    119 C          -1.1230    9.9103  -21.1381 C.3     0  UNK0        0
    120 C          -2.0931   11.0629  -22.9705 C.3     0  UNK0        0
    121 O           2.7891   11.7543  -25.0021 GLU     0  UNK0       -0
    122 C          -1.7056   11.4474  -24.4018 C.3     0  UNK0        0
    123 C           0.0433    8.2998  -19.5954 C.3     0  UNK0        0
    124 C           4.5003   10.3108  -25.8291 C.3     1  UNK1        0
    125 C           1.2013    7.3105  -19.6270 C.3     0  UNK0        0
    126 C           1.0128    6.3745  -20.8205 C.3     0  UNK0        0
    127 CA          4.0079    8.2734  -27.2623 C.3     1  UNK1        0
    128 O           5.6807    8.7114  -28.9170 GLU     1  UNK1       -0
    129 C           2.2901    7.2987  -25.9716 C.3     0  UNK0        0
    130 O           8.8299    6.2236  -22.0930 GLU     0  UNK0       -0
    131 C           2.3508    6.5668  -23.5802 C.3     0  UNK0        0
    132 C           2.1304    5.3926  -22.6288 C.3     0  UNK0        0
    133 C           7.4197    4.6089  -23.1413 C.3     1  UNK1        0
    134 C           3.0564    4.2130  -22.9362 C.3     0  UNK0        0
    135 CA          5.0565    4.9722  -24.0031 C.3     1  UNK1        0
    136 O         -16.9662   -8.2825  -13.3175 GLU     0  UNK0       -0
    137 C         -14.8052   -7.3342  -13.7062 C.3     0  UNK0        0
    138 C         -12.6644   -8.5959  -13.0987 C.3     0  UNK0        0
    139 O         -13.8161   -6.2289  -17.4806 GLU     0  UNK0       -0
    140 O         -13.1118   -8.9724  -15.4475 GLU     0  UNK0       -0
    141 C         -11.5814   -6.7523  -16.8628 C.3     0  UNK0        0
    142 C          -9.2541   -7.2215  -16.0396 C.3     0  UNK0        0
    143 O          -8.1976   -7.0189  -18.1964 GLU     0  UNK0       -0
    144 C         -10.4508   -7.8505  -12.9105 C.3     0  UNK0        0
    145 C          -8.2056   -7.1056  -12.1726 C.3     0  UNK0        0
    146 C          -5.5011   -5.7006  -12.0622 C.3     0  UNK0        0
    147 C          -7.0425   -7.1370  -13.1854 C.3     0  UNK0        0
    148 O          -0.9695  -14.8868  -13.8634 GLU     0  UNK0       -0
    149 C          -7.4349   -7.6485  -14.5776 C.3     0  UNK0        0
    150 C          -3.2240   -5.0091  -11.2773 C.3     0  UNK0        0
    151 C          -2.1180  -13.5934  -15.5064 C.3     0  UNK0        0
    152 C          -1.7154   -5.2993  -11.3102 C.3     0  UNK0        0
    153 C          -1.4754   -6.7707  -10.9250 C.3     0  UNK0        0
    154 C          -4.6044  -13.1888  -15.3642 C.3     0  UNK0        0
    155 O          -6.1682  -14.6953  -14.3239 GLU     0  UNK0       -0
    156 C          -3.8972  -11.0871  -14.5601 C.3     0  UNK0        0
    157 O          -1.1542  -15.9051  -10.9464 GLU     0  UNK0       -0
    158 C          -2.7773   -9.1815  -13.4110 C.3     0  UNK0        0
    159 C          -2.4040   -8.7171  -11.9983 C.3     0  UNK0        0
    160 C          -0.4771  -13.8388   -9.9479 C.3     0  UNK0        0
    161 C          -1.7784   -9.8701  -11.1917 C.3     0  UNK0        0
    162 C          -2.2031  -11.9899  -10.1487 C.3     0  UNK0        0
    163 O          -4.0502  -13.4511  -10.6550 GLU     0  UNK0       -0
    164 O           5.7245    2.7202  -24.5879 GLU     1  UNK1       -0
@<TRIPOS>BOND
     1     1     2    1
     2     2     3    1
     3     1     4    1
     4     4     5    1
     5     5     3    1
     6     4     6    1
     7     6     7    1
     8     7     8    1
     9     8     9    1
    10     7    10    1
    11    10    11    1
    12    11     9    1
    13     9    12    1
    14    12    13    1
    15    13    14    1
    16    15    16    1
    17    16    13    1
    18    17    18    1
    19    18    19    1
    20    19    20    1
    21    20    21    1
    22    21    17    1
    23     3    22    1
    24    22    19    1
    25    14    24    1
    26    24    15    1
    27    24    23    1
    28    23    17    1
    29    25    26    1
    30    26    27    1
    31    27    28    1
    32    28    29    1
    33    29    30    1
    34    30    25    1
    35    30    31    1
    36    23    27    1
    37    32    33    1
    38    33    34    1
    39    34    35    1
    40    35    36    1
    41    36    37    1
    42    37    32    1
    43    37    38    1
    44    39    40    1
    45    40    41    1
    46    41    42    1
    47    42    43    1
    48    43    44    1
    49    44    39    1
    50    44    45    1
    51    46    47    1
    52    47    48    1
    53    48    49    1
    54    49    50    1
    55    50    51    1
    56    51    46    1
    57    51    52    1
    58    41     6    1
    59    34    12    1
    60    48    22    1
    61    53    54    1
    62    54    55    1
    63    57    58    1
    64    58    59    1
    65    61    62    1
    66    62    63    1
    67    92    90    1
    68    94    92    1
    69    97    95    1
    70    98    97    1
    71   104   103    1
    72   106   104    1
    73   120   118    1
    74   122   120    1
    75   125   123    1
    76   126   125    1
    77   132   131    1
    78   134   132    1
    79   147   145    1
    80   149   147    1
    81   152   150    1
    82   153   152    1
    83   159   158    1
    84   161   159    1
    85   147   146    1
    86   146   150    1
    87   159   153    1
    88   152    31    1
    89   162   161    1
    90   156   158    1
    91   156   154    1
    92   157   160    1
    93   162   160    1
    94   163   162    1
    95   155   154    1
    96   154   151    1
    97   148   151    1
    98   149   142    1
    99   145   144    1
   100   144   138    1
   101   142   143    1
   102   139   141    1
   103   141   142    1
   104   140   138    1
   105   138   137    1
   106   137   136    1
   107    52    54    1
   108    53    62    1
   109    55    56    1
   110    56    58    1
   111    77    61    1
   112    63    64    1
   113    64    73    1
   114    69    57    1
   115    59    60    1
   116    60    65    1
   117    68    65    1
   118    65    66    1
   119    66    67    1
   120    72    69    1
   121    69    70    1
   122    70    71    1
   123    73    76    1
   124    73    74    1
   125    74    75    1
   126    79    78    1
   127    78    77    1
   128    77    80    1
   129    45    97    1
   130    98   104    1
   131    95    91    1
   132    91    92    1
   133   106   107    1
   134   103   101    1
   135   101    99    1
   136   107   105    1
   137   105   102    1
   138   107   108    1
   139    99   100    1
   140    99    96    1
   141    96    93    1
   142    94    87    1
   143    90    89    1
   144    89    83    1
   145    83    85    1
   146    83    82    1
   147    82    81    1
   148    87    88    1
   149    87    86    1
   150    86    84    1
   151    38   125    1
   152   126   132    1
   153   123   119    1
   154   119   120    1
   155   122   115    1
   156   117   111    1
   157   118   117    1
   158   115   116    1
   159   111   113    1
   160   115   114    1
   161   114   112    1
   162   111   110    1
   163   110   109    1
   164   134   135    1
   165   127   129    1
   166   129   131    1
   167   128   127    1
   168   127   124    1
   169   124   121    1
   170   164   135    1
   171   135   133    1
   172   133   130    1
